
OS:Version,
  {6f6012bc-171c-4fa7-a307-a43d4f9dbd1f}, !- Handle
  3.0.0;                                  !- Version Identifier

OS:Site,
  {b8c4e0c3-5320-4063-a40d-e2b932b38822}, !- Handle
  Site 1,                                 !- Name
  ,                                       !- Latitude {deg}
  ,                                       !- Longitude {deg}
  ,                                       !- Time Zone {hr}
  ,                                       !- Elevation {m}
  ;                                       !- Terrain

OS:YearDescription,
  {6ebfeaf0-bdac-46a5-b1dd-9b6b07641d5f}; !- Handle

OS:ClimateZones,
  {a610abd7-c43a-4190-b9ee-3bb702f638aa}, !- Handle
  ASHRAE,                                 !- Climate Zone Institution Name 1
  ANSI/ASHRAE Standard 169,               !- Climate Zone Document Name 1
  2006,                                   !- Climate Zone Document Year 1
  ,                                       !- Climate Zone Value 1
  CEC,                                    !- Climate Zone Institution Name 2
  California Climate Zone Descriptions,   !- Climate Zone Document Name 2
  1995,                                   !- Climate Zone Document Year 2
  ;                                       !- Climate Zone Value 2

OS:Building,
  {137ebcb9-b288-4fc2-9342-584ac6ea3491}, !- Handle
  Building 1,                             !- Name
  ,                                       !- Building Sector Type
  ,                                       !- North Axis {deg}
  ,                                       !- Nominal Floor to Floor Height {m}
  ,                                       !- Space Type Name
  ,                                       !- Default Construction Set Name
  ;                                       !- Default Schedule Set Name

OS:Facility,
  {c04056e7-b76f-4d32-a6fc-981f9535c956}; !- Handle

OS:SimulationControl,
  {bb235713-e843-4673-9057-548223238320}; !- Handle

OS:Sizing:Parameters,
  {3e7bb607-f1ea-4448-8974-f96aee156e4c}, !- Handle
  1.25,                                   !- Heating Sizing Factor
  1.15;                                   !- Cooling Sizing Factor

OS:Timestep,
  {59540bcd-0b12-4b84-ac2b-f1e5cfea9ea6}, !- Handle
  4;                                      !- Number of Timesteps per Hour

OS:ShadowCalculation,
  {4240ffea-64fe-4ed2-a998-6c4f3845496d}, !- Handle
  PolygonClipping,                        !- Shading Calculation Method
  ,                                       !- Shading Calculation Update Frequency Method
  20,                                     !- Shading Calculation Update Frequency
  15000,                                  !- Maximum Figures in Shadow Overlap Calculations
  ,                                       !- Polygon Clipping Algorithm
  512,                                    !- Pixel Counting Resolution
  ,                                       !- Sky Diffuse Modeling Algorithm
  No,                                     !- Output External Shading Calculation Results
  No,                                     !- Disable Self-Shading Within Shading Zone Groups
  No;                                     !- Disable Self-Shading From Shading Zone Groups to Other Zones

OS:HeatBalanceAlgorithm,
  {1a28ebb5-0cfa-4fc4-8b90-9f408f3ba745}, !- Handle
  ConductionTransferFunction,             !- Algorithm
  200;                                    !- Surface Temperature Upper Limit {C}

OS:RunPeriod,
  {439dce60-650e-473a-8a92-bd56f4495ad1}, !- Handle
  Run Period 1,                           !- Name
  1,                                      !- Begin Month
  1,                                      !- Begin Day of Month
  12,                                     !- End Month
  31,                                     !- End Day of Month
  ,                                       !- Use Weather File Holidays and Special Days
  ,                                       !- Use Weather File Daylight Saving Period
  ,                                       !- Apply Weekend Holiday Rule
  ,                                       !- Use Weather File Rain Indicators
  ,                                       !- Use Weather File Snow Indicators
  ;                                       !- Number of Times Runperiod to be Repeated

OS:LifeCycleCost:Parameters,
  {7132ece4-20e6-483a-ae80-c633f31803df}, !- Handle
  ,                                       !- Analysis Type
  ,                                       !- Discounting Convention
  ,                                       !- Inflation Approach
  ,                                       !- Real Discount Rate
  ,                                       !- Nominal Discount Rate
  ,                                       !- Inflation
  ,                                       !- Base Date Month
  ,                                       !- Base Date Year
  ,                                       !- Service Date Month
  ,                                       !- Service Date Year
  ;                                       !- Length of Study Period in Years

OS:RadianceParameters,
  {78e86059-61a6-43f3-ad18-7a8503d71eb9}, !- Handle
  1,                                      !- Accumulated Rays per Record
  0,                                      !- Direct Threshold
  1,                                      !- Direct Certainty
  1,                                      !- Direct Jitter
  1,                                      !- Direct Pretest
  6,                                      !- Ambient Bounces VMX
  2,                                      !- Ambient Bounces DMX
  4050,                                   !- Ambient Divisions VMX
  512,                                    !- Ambient Divisions DMX
  256,                                    !- Ambient Supersamples
  0.001,                                  !- Limit Weight VMX
  0.001,                                  !- Limit Weight DMX
  500,                                    !- Klems Sampling Density
  146;                                    !- Sky Discretization Resolution

OS:ProgramControl,
  {532e740a-b37f-459f-8847-fa43ef0c72b1}; !- Handle

OS:OutputControl:ReportingTolerances,
  {4c6bf87e-7beb-4a82-993d-5e1758c668ff}; !- Handle

OS:ConvergenceLimits,
  {2665bec6-cde2-44fb-aa52-28c1a6ad3513}, !- Handle
  1;                                      !- Minimum System Timestep {minutes}

OS:SurfaceConvectionAlgorithm:Inside,
  {4713ad99-5079-412b-8dca-4300012552df}, !- Handle
  TARP;                                   !- Algorithm

OS:SurfaceConvectionAlgorithm:Outside,
  {7df52203-a80d-45a6-8216-0031ce0a165c}, !- Handle
  DOE-2;                                  !- Algorithm

OS:ZoneAirHeatBalanceAlgorithm,
  {20c3b9a7-ce9e-4f36-adfc-ee26b4bcd036}, !- Handle
  ThirdOrderBackwardDifference;           !- Algorithm

OS:ZoneAirContaminantBalance,
  {6f43c48a-dd08-4c47-b226-7b91aed8d9d4}; !- Handle

OS:ZoneCapacitanceMultiplier:ResearchSpecial,
  {77259d54-66df-4234-b88b-16f157dc1c5a}, !- Handle
  ,                                       !- Temperature Capacity Multiplier
  ,                                       !- Humidity Capacity Multiplier
  ;                                       !- Carbon Dioxide Capacity Multiplier

