
OS:Version,
  {7f368b7a-4c57-46f6-b318-a84a26554497}, !- Handle
  3.1.0;                                  !- Version Identifier

OS:Site,
  {febc7949-a2dc-4c74-ac7b-377659192172}, !- Handle
  Tucson International Ap_AZ_USA,         !- Name
  32.13,                                  !- Latitude {deg}
  -110.95,                                !- Longitude {deg}
  -7,                                     !- Time Zone {hr}
  777,                                    !- Elevation {m}
  City;                                   !- Terrain

OS:YearDescription,
  {3b56c551-f993-4005-9c7c-5480241ebb9e}; !- Handle

OS:ClimateZones,
  {921fb1b1-fa2d-497f-b578-bb079dacbc03}, !- Handle
  ASHRAE,                                 !- Climate Zone Institution Name 1
  ANSI/ASHRAE Standard 169,               !- Climate Zone Document Name 1
  2006,                                   !- Climate Zone Document Year 1
  2B;                                     !- Climate Zone Value 1

OS:Facility,
  {1fa7bddc-b35d-4b65-86f1-a8ef1a50f86b}; !- Handle

OS:SimulationControl,
  {e46fa614-7718-4915-96c5-4341dd536ece}, !- Handle
  ,                                       !- Do Zone Sizing Calculation
  ,                                       !- Do System Sizing Calculation
  ,                                       !- Do Plant Sizing Calculation
  Yes,                                    !- Run Simulation for Sizing Periods
  No,                                     !- Run Simulation for Weather File Run Periods
  ,                                       !- Loads Convergence Tolerance Value {W}
  ,                                       !- Temperature Convergence Tolerance Value {deltaC}
  ,                                       !- Solar Distribution
  ,                                       !- Maximum Number of Warmup Days
  ,                                       !- Minimum Number of Warmup Days
  Yes,                                    !- Do HVAC Sizing Simulation for Sizing Periods
  1;                                      !- Maximum Number of HVAC Sizing Simulation Passes

OS:Sizing:Parameters,
  {8486e31d-42a5-4b0e-9774-babd792b8522}, !- Handle
  1.25,                                   !- Heating Sizing Factor
  1.15;                                   !- Cooling Sizing Factor

OS:Timestep,
  {9904db88-62f1-4d1d-95be-20909715611b}, !- Handle
  4;                                      !- Number of Timesteps per Hour

OS:ShadowCalculation,
  {d8b93ab4-099e-47e9-a821-0e6dbd852baf}, !- Handle
  PolygonClipping,                        !- Shading Calculation Method
  ,                                       !- Shading Calculation Update Frequency Method
  20,                                     !- Shading Calculation Update Frequency
  15000,                                  !- Maximum Figures in Shadow Overlap Calculations
  ,                                       !- Polygon Clipping Algorithm
  512,                                    !- Pixel Counting Resolution
  ,                                       !- Sky Diffuse Modeling Algorithm
  No,                                     !- Output External Shading Calculation Results
  No,                                     !- Disable Self-Shading Within Shading Zone Groups
  No;                                     !- Disable Self-Shading From Shading Zone Groups to Other Zones

OS:HeatBalanceAlgorithm,
  {68e81134-bc0c-4a42-b10f-db276fc74a3b}, !- Handle
  ConductionTransferFunction,             !- Algorithm
  200;                                    !- Surface Temperature Upper Limit {C}

OS:RunPeriod,
  {57324981-05db-45f6-9c9f-c840fd123510}, !- Handle
  Run Period 1,                           !- Name
  8,                                      !- Begin Month
  3,                                      !- Begin Day of Month
  8,                                      !- End Month
  7,                                      !- End Day of Month
  ,                                       !- Use Weather File Holidays and Special Days
  ,                                       !- Use Weather File Daylight Saving Period
  ,                                       !- Apply Weekend Holiday Rule
  ,                                       !- Use Weather File Rain Indicators
  ,                                       !- Use Weather File Snow Indicators
  ;                                       !- Number of Times Runperiod to be Repeated

OS:LifeCycleCost:Parameters,
  {3aa2b49d-c1af-4905-8b3f-ce7c76e4679a}, !- Handle
  ,                                       !- Analysis Type
  ,                                       !- Discounting Convention
  ,                                       !- Inflation Approach
  ,                                       !- Real Discount Rate
  ,                                       !- Nominal Discount Rate
  ,                                       !- Inflation
  ,                                       !- Base Date Month
  ,                                       !- Base Date Year
  ,                                       !- Service Date Month
  ,                                       !- Service Date Year
  ;                                       !- Length of Study Period in Years

OS:RadianceParameters,
  {ab1e94eb-c295-46cc-9164-1136e9bc629a}, !- Handle
  1,                                      !- Accumulated Rays per Record
  0,                                      !- Direct Threshold
  1,                                      !- Direct Certainty
  1,                                      !- Direct Jitter
  1,                                      !- Direct Pretest
  6,                                      !- Ambient Bounces VMX
  2,                                      !- Ambient Bounces DMX
  4050,                                   !- Ambient Divisions VMX
  512,                                    !- Ambient Divisions DMX
  256,                                    !- Ambient Supersamples
  0.001,                                  !- Limit Weight VMX
  0.001,                                  !- Limit Weight DMX
  500,                                    !- Klems Sampling Density
  146;                                    !- Sky Discretization Resolution

OS:ProgramControl,
  {1f808c32-ac42-4211-8104-a2e450ef570b}; !- Handle

OS:OutputControl:ReportingTolerances,
  {23d7ce3e-a02b-445a-a649-c6e420f3c84d}; !- Handle

OS:ConvergenceLimits,
  {d6aefb5e-7af6-4248-8f5d-abca83ff041a}, !- Handle
  1;                                      !- Minimum System Timestep {minutes}

OS:SurfaceConvectionAlgorithm:Inside,
  {3f36e40c-b7d2-4a07-8b36-0674ae0c543d}, !- Handle
  TARP;                                   !- Algorithm

OS:SurfaceConvectionAlgorithm:Outside,
  {085f4eef-8a0e-4907-b4fc-13bc3d15b909}, !- Handle
  DOE-2;                                  !- Algorithm

OS:ZoneAirHeatBalanceAlgorithm,
  {a15d152d-b232-46cd-99e4-06d3ec73ad4f}, !- Handle
  ThirdOrderBackwardDifference;           !- Algorithm

OS:ZoneAirContaminantBalance,
  {1632c275-8111-48b3-9f0e-7a5f67ae96f6}; !- Handle

OS:ZoneCapacitanceMultiplier:ResearchSpecial,
  {cc0f538d-6300-4fa9-8c23-88b0e105ad24}, !- Handle
  ,                                       !- Temperature Capacity Multiplier
  ,                                       !- Humidity Capacity Multiplier
  ;                                       !- Carbon Dioxide Capacity Multiplier

OS:Output:JSON,
  {ad6d0dca-7f18-40e9-ab02-bb3a5f4f466b}, !- Handle
  TimeSeriesAndTabular,                   !- Option Type
  No,                                     !- Output JSON
  No,                                     !- Output CBOR
  No;                                     !- Output MessagePack

OS:WeatherFile,
  {9c237a2b-a431-4224-a03b-edc5fb5a98c0}, !- Handle
  Tucson International Ap,                !- City
  AZ,                                     !- State Province Region
  USA,                                    !- Country
  TMY3,                                   !- Data Source
  722740,                                 !- WMO Number
  32.13,                                  !- Latitude {deg}
  -110.95,                                !- Longitude {deg}
  -7,                                     !- Time Zone {hr}
  777,                                    !- Elevation {m}
  C:/Users/JKIM4/AppData/Local/Temp/1/osmodel-1650464208-0/resources/run/002_create_typical_building_from_model/SRvt/in.epw, !- Url
  EA8EBBCB;                               !- Checksum

OS:Site:WaterMainsTemperature,
  {22a87865-912b-40d6-811f-16570ebd8361}, !- Handle
  Correlation,                            !- Calculation Method
  ,                                       !- Temperature Schedule Name
  20.3916666666667,                       !- Annual Average Outdoor Air Temperature {C}
  20.1;                                   !- Maximum Difference In Monthly Average Outdoor Air Temperatures {deltaC}

OS:SizingPeriod:DesignDay,
  {94ea8023-440f-4d5d-bdf8-9eddde184aec}, !- Handle
  Tucson International Ap Ann Clg .4% Condns DB=>MWB 1, !- Name
  41.1,                                   !- Maximum Dry-Bulb Temperature {C}
  13.8,                                   !- Daily Dry-Bulb Temperature Range {deltaC}
  19,                                     !- Humidity Indicating Conditions at Maximum Dry-Bulb
  92332,                                  !- Barometric Pressure {Pa}
  5,                                      !- Wind Speed {m/s}
  300,                                    !- Wind Direction {deg}
  0,                                      !- Sky Clearness
  0,                                      !- Rain Indicator
  0,                                      !- Snow Indicator
  21,                                     !- Day of Month
  7,                                      !- Month
  SummerDesignDay,                        !- Day Type
  0,                                      !- Daylight Saving Time Indicator
  Wetbulb,                                !- Humidity Indicating Type
  ,                                       !- Humidity Indicating Day Schedule Name
  DefaultMultipliers,                     !- Dry-Bulb Temperature Range Modifier Type
  ,                                       !- Dry-Bulb Temperature Range Modifier Schedule Name
  ASHRAETau,                              !- Solar Model Indicator
  ,                                       !- Beam Solar Day Schedule Name
  ,                                       !- Diffuse Solar Day Schedule Name
  0.555,                                  !- ASHRAE Taub {dimensionless}
  1.73;                                   !- ASHRAE Taud {dimensionless}

OS:SizingPeriod:DesignDay,
  {5fbef658-4c73-442e-8702-e3db83929958}, !- Handle
  Tucson International Ap Ann Clg .4% Condns WB=>MDB 1, !- Name
  31.6,                                   !- Maximum Dry-Bulb Temperature {C}
  13.8,                                   !- Daily Dry-Bulb Temperature Range {deltaC}
  22.5,                                   !- Humidity Indicating Conditions at Maximum Dry-Bulb
  92332,                                  !- Barometric Pressure {Pa}
  5,                                      !- Wind Speed {m/s}
  300,                                    !- Wind Direction {deg}
  0,                                      !- Sky Clearness
  0,                                      !- Rain Indicator
  0,                                      !- Snow Indicator
  21,                                     !- Day of Month
  7,                                      !- Month
  SummerDesignDay,                        !- Day Type
  0,                                      !- Daylight Saving Time Indicator
  Wetbulb,                                !- Humidity Indicating Type
  ,                                       !- Humidity Indicating Day Schedule Name
  DefaultMultipliers,                     !- Dry-Bulb Temperature Range Modifier Type
  ,                                       !- Dry-Bulb Temperature Range Modifier Schedule Name
  ASHRAETau,                              !- Solar Model Indicator
  ,                                       !- Beam Solar Day Schedule Name
  ,                                       !- Diffuse Solar Day Schedule Name
  0.555,                                  !- ASHRAE Taub {dimensionless}
  1.73;                                   !- ASHRAE Taud {dimensionless}

OS:SizingPeriod:DesignDay,
  {97ef0eee-b7db-410c-9437-2ffc87625105}, !- Handle
  Tucson International Ap Ann Htg 99.6% Condns DB 1, !- Name
  -0.2,                                   !- Maximum Dry-Bulb Temperature {C}
  0,                                      !- Daily Dry-Bulb Temperature Range {deltaC}
  -0.2,                                   !- Humidity Indicating Conditions at Maximum Dry-Bulb
  92332,                                  !- Barometric Pressure {Pa}
  2.5,                                    !- Wind Speed {m/s}
  140,                                    !- Wind Direction {deg}
  0,                                      !- Sky Clearness
  0,                                      !- Rain Indicator
  0,                                      !- Snow Indicator
  21,                                     !- Day of Month
  12,                                     !- Month
  WinterDesignDay,                        !- Day Type
  0,                                      !- Daylight Saving Time Indicator
  Wetbulb,                                !- Humidity Indicating Type
  ,                                       !- Humidity Indicating Day Schedule Name
  DefaultMultipliers,                     !- Dry-Bulb Temperature Range Modifier Type
  ,                                       !- Dry-Bulb Temperature Range Modifier Schedule Name
  ASHRAEClearSky;                         !- Solar Model Indicator

OS:Building,
  {0c207b21-fed8-4328-9e55-ebd59787fa3e}, !- Handle
  90.1-2010|MediumOffice,                 !- Name
  ,                                       !- Building Sector Type
  ,                                       !- North Axis {deg}
  ,                                       !- Nominal Floor to Floor Height {m}
  {e40648aa-8d1e-4660-84bb-58a2a03893b6}, !- Space Type Name
  {f8451772-c33a-4f19-ae94-c339f9fb5f00}, !- Default Construction Set Name
  ,                                       !- Default Schedule Set Name
  ,                                       !- Standards Number of Stories
  ,                                       !- Standards Number of Above Ground Stories
  ,                                       !- Standards Template
  Office;                                 !- Standards Building Type

OS:SpaceType,
  {e40648aa-8d1e-4660-84bb-58a2a03893b6}, !- Handle
  Office WholeBuilding - Md Office - 90.1-2010, !- Name
  ,                                       !- Default Construction Set Name
  {b54f6f18-d112-453a-9087-921c6dce9c4d}, !- Default Schedule Set Name
  {61a35192-d1c4-496b-9459-b33a0f08be45}, !- Group Rendering Name
  {f18de702-a35d-43d6-891b-aed82a8d62c7}, !- Design Specification Outdoor Air Object Name
  ,                                       !- Standards Template
  Office,                                 !- Standards Building Type
  WholeBuilding - Md Office;              !- Standards Space Type

OS:Rendering:Color,
  {61a35192-d1c4-496b-9459-b33a0f08be45}, !- Handle
  Office WholeBuilding - Md Office,       !- Name
  120,                                    !- Rendering Red Value
  230,                                    !- Rendering Green Value
  199;                                    !- Rendering Blue Value

OS:BuildingStory,
  {125b8089-aa2e-41dc-9656-82afbb439b46}, !- Handle
  Story Ground,                           !- Name
  0,                                      !- Nominal Z Coordinate {m}
  3.9624,                                 !- Nominal Floor to Floor Height {m}
  ,                                       !- Default Construction Set Name
  ,                                       !- Default Schedule Set Name
  ;                                       !- Group Rendering Name

OS:Space,
  {4ae510a9-c333-4a23-9a76-f82a35b91e84}, !- Handle
  West Perimeter Space - Story Ground,    !- Name
  ,                                       !- Space Type Name
  ,                                       !- Default Construction Set Name
  ,                                       !- Default Schedule Set Name
  -0,                                     !- Direction of Relative North {deg}
  -41.7364588818937,                      !- X Origin {m}
  -27.8243059212624,                      !- Y Origin {m}
  0,                                      !- Z Origin {m}
  {125b8089-aa2e-41dc-9656-82afbb439b46}, !- Building Story Name
  {d6b1dab4-5739-43cc-9541-30510e18b18b}; !- Thermal Zone Name

OS:Surface,
  {985e4ca7-a5b1-43de-8fa4-705e11ad7e39}, !- Handle
  Surface 1,                              !- Name
  Floor,                                  !- Surface Type
  ,                                       !- Construction Name
  {4ae510a9-c333-4a23-9a76-f82a35b91e84}, !- Space Name
  Ground,                                 !- Outside Boundary Condition
  ,                                       !- Outside Boundary Condition Object
  NoSun,                                  !- Sun Exposure
  NoWind,                                 !- Wind Exposure
  ,                                       !- View Factor to Ground
  ,                                       !- Number of Vertices
  -4.2632564145606e-14, 3.90798504668055e-14, 0, !- X,Y,Z Vertex 1 {m}
  -4.2632564145606e-14, 55.6486118425248, 0, !- X,Y,Z Vertex 2 {m}
  4.57199999999995, 51.0766118425248, 0,  !- X,Y,Z Vertex 3 {m}
  4.57199999999995, 4.57200000000004, 0;  !- X,Y,Z Vertex 4 {m}

OS:Surface,
  {397c29ef-a7a5-42a7-b8a4-bf0fa7436ad0}, !- Handle
  Surface 2,                              !- Name
  Wall,                                   !- Surface Type
  ,                                       !- Construction Name
  {4ae510a9-c333-4a23-9a76-f82a35b91e84}, !- Space Name
  Outdoors,                               !- Outside Boundary Condition
  ,                                       !- Outside Boundary Condition Object
  SunExposed,                             !- Sun Exposure
  WindExposed,                            !- Wind Exposure
  ,                                       !- View Factor to Ground
  ,                                       !- Number of Vertices
  -4.2632564145606e-14, 55.6486118425248, 3.9624, !- X,Y,Z Vertex 1 {m}
  -4.2632564145606e-14, 55.6486118425248, 0, !- X,Y,Z Vertex 2 {m}
  -4.2632564145606e-14, 3.90798504668055e-14, 0, !- X,Y,Z Vertex 3 {m}
  -4.2632564145606e-14, 3.90798504668055e-14, 3.9624; !- X,Y,Z Vertex 4 {m}

OS:Surface,
  {a842e265-7cd2-45c5-b61c-0ffdd9b70b08}, !- Handle
  Surface 3,                              !- Name
  Wall,                                   !- Surface Type
  ,                                       !- Construction Name
  {4ae510a9-c333-4a23-9a76-f82a35b91e84}, !- Space Name
  Surface,                                !- Outside Boundary Condition
  {8cc1cdd8-777b-4513-b02a-ad2c895dd20b}, !- Outside Boundary Condition Object
  NoSun,                                  !- Sun Exposure
  NoWind,                                 !- Wind Exposure
  ,                                       !- View Factor to Ground
  ,                                       !- Number of Vertices
  4.57199999999995, 51.0766118425248, 3.9624, !- X,Y,Z Vertex 1 {m}
  4.57199999999995, 51.0766118425248, 0,  !- X,Y,Z Vertex 2 {m}
  -4.2632564145606e-14, 55.6486118425248, 0, !- X,Y,Z Vertex 3 {m}
  -4.2632564145606e-14, 55.6486118425248, 3.9624; !- X,Y,Z Vertex 4 {m}

OS:Surface,
  {dc8d51c6-000f-4fcb-af03-c457e1cbd45e}, !- Handle
  Surface 4,                              !- Name
  Wall,                                   !- Surface Type
  ,                                       !- Construction Name
  {4ae510a9-c333-4a23-9a76-f82a35b91e84}, !- Space Name
  Surface,                                !- Outside Boundary Condition
  {d4c11d0b-a365-4059-8c3d-36af24ec32b1}, !- Outside Boundary Condition Object
  NoSun,                                  !- Sun Exposure
  NoWind,                                 !- Wind Exposure
  ,                                       !- View Factor to Ground
  ,                                       !- Number of Vertices
  4.57199999999995, 4.57200000000004, 3.9624, !- X,Y,Z Vertex 1 {m}
  4.57199999999995, 4.57200000000004, 0,  !- X,Y,Z Vertex 2 {m}
  4.57199999999995, 51.0766118425248, 0,  !- X,Y,Z Vertex 3 {m}
  4.57199999999995, 51.0766118425248, 3.9624; !- X,Y,Z Vertex 4 {m}

OS:Surface,
  {ab75ec0f-4c0b-40b0-bd20-408a976bc613}, !- Handle
  Surface 5,                              !- Name
  Wall,                                   !- Surface Type
  ,                                       !- Construction Name
  {4ae510a9-c333-4a23-9a76-f82a35b91e84}, !- Space Name
  Surface,                                !- Outside Boundary Condition
  {b3f9e6e0-d11d-4ba7-a413-bdfc0d74e61c}, !- Outside Boundary Condition Object
  NoSun,                                  !- Sun Exposure
  NoWind,                                 !- Wind Exposure
  ,                                       !- View Factor to Ground
  ,                                       !- Number of Vertices
  -4.2632564145606e-14, 3.90798504668055e-14, 3.9624, !- X,Y,Z Vertex 1 {m}
  -4.2632564145606e-14, 3.90798504668055e-14, 0, !- X,Y,Z Vertex 2 {m}
  4.57199999999995, 4.57200000000004, 0,  !- X,Y,Z Vertex 3 {m}
  4.57199999999995, 4.57200000000004, 3.9624; !- X,Y,Z Vertex 4 {m}

OS:Surface,
  {55e0dbc1-8917-4e60-ac8f-8ca1156d8751}, !- Handle
  Surface 6,                              !- Name
  RoofCeiling,                            !- Surface Type
  {aed44d86-158a-416b-bf5a-ce3b61aec032}, !- Construction Name
  {4ae510a9-c333-4a23-9a76-f82a35b91e84}, !- Space Name
  Adiabatic,                              !- Outside Boundary Condition
  ,                                       !- Outside Boundary Condition Object
  NoSun,                                  !- Sun Exposure
  NoWind,                                 !- Wind Exposure
  ,                                       !- View Factor to Ground
  ,                                       !- Number of Vertices
  4.57199999999995, 4.57200000000004, 3.9624, !- X,Y,Z Vertex 1 {m}
  4.57199999999995, 51.0766118425248, 3.9624, !- X,Y,Z Vertex 2 {m}
  -4.2632564145606e-14, 55.6486118425248, 3.9624, !- X,Y,Z Vertex 3 {m}
  -4.2632564145606e-14, 3.90798504668055e-14, 3.9624; !- X,Y,Z Vertex 4 {m}

OS:ThermalZone,
  {d6b1dab4-5739-43cc-9541-30510e18b18b}, !- Handle
  Zone West Perimeter Space - Story Ground, !- Name
  1,                                      !- Multiplier
  ,                                       !- Ceiling Height {m}
  ,                                       !- Volume {m3}
  ,                                       !- Floor Area {m2}
  ,                                       !- Zone Inside Convection Algorithm
  ,                                       !- Zone Outside Convection Algorithm
  ,                                       !- Zone Conditioning Equipment List Name
  {c39d933e-7c51-417f-8923-a752bd2c5db1}, !- Zone Air Inlet Port List
  {8284d5bb-3fbf-440e-b14d-5698116ffa1e}, !- Zone Air Exhaust Port List
  {a33e8289-fef8-45b9-b1f9-90a2fffaef67}, !- Zone Air Node Name
  {e4527e85-8524-415e-9895-46c6e09111c8}, !- Zone Return Air Port List
  ,                                       !- Primary Daylighting Control Name
  ,                                       !- Fraction of Zone Controlled by Primary Daylighting Control
  ,                                       !- Secondary Daylighting Control Name
  ,                                       !- Fraction of Zone Controlled by Secondary Daylighting Control
  ,                                       !- Illuminance Map Name
  ,                                       !- Group Rendering Name
  ,                                       !- Thermostat Name
  No;                                     !- Use Ideal Air Loads

OS:Node,
  {5de1cf1f-b182-4551-8c50-e7bef88f9114}, !- Handle
  Node 1,                                 !- Name
  {a33e8289-fef8-45b9-b1f9-90a2fffaef67}, !- Inlet Port
  ;                                       !- Outlet Port

OS:Connection,
  {a33e8289-fef8-45b9-b1f9-90a2fffaef67}, !- Handle
  {520f99fa-29ef-425e-862d-c13d3ffcee1f}, !- Name
  {d6b1dab4-5739-43cc-9541-30510e18b18b}, !- Source Object
  11,                                     !- Outlet Port
  {5de1cf1f-b182-4551-8c50-e7bef88f9114}, !- Target Object
  2;                                      !- Inlet Port

OS:PortList,
  {c39d933e-7c51-417f-8923-a752bd2c5db1}, !- Handle
  {1b168377-bd2e-4948-945c-e98b079faf7e}, !- Name
  {d6b1dab4-5739-43cc-9541-30510e18b18b}; !- HVAC Component

OS:PortList,
  {8284d5bb-3fbf-440e-b14d-5698116ffa1e}, !- Handle
  {5574a770-9e3b-4035-9af4-cd1bb1b1ab26}, !- Name
  {d6b1dab4-5739-43cc-9541-30510e18b18b}; !- HVAC Component

OS:PortList,
  {e4527e85-8524-415e-9895-46c6e09111c8}, !- Handle
  {9b9602e8-4f5f-4823-a4e6-09caddd7da84}, !- Name
  {d6b1dab4-5739-43cc-9541-30510e18b18b}; !- HVAC Component

OS:Sizing:Zone,
  {4c69f292-d268-42d8-8239-c6e24c49e3be}, !- Handle
  {d6b1dab4-5739-43cc-9541-30510e18b18b}, !- Zone or ZoneList Name
  SupplyAirTemperature,                   !- Zone Cooling Design Supply Air Temperature Input Method
  14,                                     !- Zone Cooling Design Supply Air Temperature {C}
  11.11,                                  !- Zone Cooling Design Supply Air Temperature Difference {deltaC}
  SupplyAirTemperature,                   !- Zone Heating Design Supply Air Temperature Input Method
  40,                                     !- Zone Heating Design Supply Air Temperature {C}
  11.11,                                  !- Zone Heating Design Supply Air Temperature Difference {deltaC}
  0.0085,                                 !- Zone Cooling Design Supply Air Humidity Ratio {kg-H2O/kg-air}
  0.008,                                  !- Zone Heating Design Supply Air Humidity Ratio {kg-H2O/kg-air}
  ,                                       !- Zone Heating Sizing Factor
  ,                                       !- Zone Cooling Sizing Factor
  DesignDay,                              !- Cooling Design Air Flow Method
  ,                                       !- Cooling Design Air Flow Rate {m3/s}
  ,                                       !- Cooling Minimum Air Flow per Zone Floor Area {m3/s-m2}
  ,                                       !- Cooling Minimum Air Flow {m3/s}
  ,                                       !- Cooling Minimum Air Flow Fraction
  DesignDay,                              !- Heating Design Air Flow Method
  ,                                       !- Heating Design Air Flow Rate {m3/s}
  ,                                       !- Heating Maximum Air Flow per Zone Floor Area {m3/s-m2}
  ,                                       !- Heating Maximum Air Flow {m3/s}
  ,                                       !- Heating Maximum Air Flow Fraction
  No,                                     !- Account for Dedicated Outdoor Air System
  NeutralSupplyAir,                       !- Dedicated Outdoor Air System Control Strategy
  autosize,                               !- Dedicated Outdoor Air Low Setpoint Temperature for Design {C}
  autosize;                               !- Dedicated Outdoor Air High Setpoint Temperature for Design {C}

OS:ZoneHVAC:EquipmentList,
  {bb3f3750-a891-4d63-8e46-abfb032129a8}, !- Handle
  Zone HVAC Equipment List 1,             !- Name
  {d6b1dab4-5739-43cc-9541-30510e18b18b}; !- Thermal Zone

OS:Space,
  {a1c1e4a1-611d-4233-a280-27cdcf0d862e}, !- Handle
  North Perimeter Space - Story Ground,   !- Name
  ,                                       !- Space Type Name
  ,                                       !- Default Construction Set Name
  ,                                       !- Default Schedule Set Name
  -0,                                     !- Direction of Relative North {deg}
  -41.7364588818937,                      !- X Origin {m}
  27.8243059212624,                       !- Y Origin {m}
  0,                                      !- Z Origin {m}
  {125b8089-aa2e-41dc-9656-82afbb439b46}, !- Building Story Name
  {5fb12a5c-f0fb-4f85-a88b-1c5853d01f24}; !- Thermal Zone Name

OS:Surface,
  {7ba10ed8-8d9e-4b52-9e4c-b9fe0a407dfd}, !- Handle
  Surface 7,                              !- Name
  Floor,                                  !- Surface Type
  ,                                       !- Construction Name
  {a1c1e4a1-611d-4233-a280-27cdcf0d862e}, !- Space Name
  Ground,                                 !- Outside Boundary Condition
  ,                                       !- Outside Boundary Condition Object
  NoSun,                                  !- Sun Exposure
  NoWind,                                 !- Wind Exposure
  ,                                       !- View Factor to Ground
  ,                                       !- Number of Vertices
  -4.2632564145606e-14, -3.90798504668055e-14, 0, !- X,Y,Z Vertex 1 {m}
  83.4729177637874, -3.90798504668055e-14, 0, !- X,Y,Z Vertex 2 {m}
  78.9009177637874, -4.57200000000004, 0, !- X,Y,Z Vertex 3 {m}
  4.57199999999995, -4.57200000000004, 0; !- X,Y,Z Vertex 4 {m}

OS:Surface,
  {757b0b5f-0675-43d4-adc6-4716a7e4254d}, !- Handle
  Surface 8,                              !- Name
  Wall,                                   !- Surface Type
  ,                                       !- Construction Name
  {a1c1e4a1-611d-4233-a280-27cdcf0d862e}, !- Space Name
  Outdoors,                               !- Outside Boundary Condition
  ,                                       !- Outside Boundary Condition Object
  SunExposed,                             !- Sun Exposure
  WindExposed,                            !- Wind Exposure
  ,                                       !- View Factor to Ground
  ,                                       !- Number of Vertices
  83.4729177637874, -3.90798504668055e-14, 3.9624, !- X,Y,Z Vertex 1 {m}